psse/psse-converter/src/test/resources/IEEE_118_bus_updated_exported.raw
0,100.0,33,0.0,0.0,60.0
 08/25/93 UW ARCHIVE           100.0  1961 W IEEE 118 Bus Test Case

1,'Riversde    ',138.0,2,1,1,1,0.955,10.9828
2,'Pokagon     ',138.0,1,1,1,1,0.97139,11.5228
3,'HickryCk    ',138.0,1,1,1,1,0.96769,11.8662
4,'NwCarlsl    ',138.0,2,1,1,1,0.9979999999999999,15.5836
5,'Olive       ',138.0,1,1,1,1,1.00198,16.0287
6,'Kankakee    ',138.0,2,1,1,1,0.99,13.3018
7,'JacksnRd    ',138.0,1,1,1,1,0.9893300000000002,12.8575
8,'Olive       ',138.0,2,1,1,1,1.015,21.0492
9,'Bequine     ',138.0,1,1,1,1,1.04292,28.3033
10,'Breed       ',138.0,2,1,1,1,1.05,35.8842
11,'SouthBnd    ',138.0,1,1,1,1,0.98509,13.0161
12,'TwinBrch    ',138.0,2,1,1,1,0.99,12.4993
13,'Concord     ',138.0,1,1,1,1,0.9683,11.6412
14,'GoshenJt    ',138.0,1,1,1,1,0.9835900000000001,11.7831
15,'FtWayne     ',138.0,2,1,1,1,0.9699999999999999,11.4894
16,'N. E.       ',138.0,1,1,1,1,0.9839099999999998,12.1978
17,'Sorenson    ',138.0,1,1,1,1,0.9951299999999998,14.0056
18,'McKinley    ',138.0,2,1,1,1,0.973,11.792
19,'Lincoln     ',138.0,2,1,1,1,0.96343,11.3074
20,'Adams       ',138.0,1,1,1,1,0.9580599999999999,12.1872
21,'Jay         ',138.0,1,1,1,1,0.9586199999999999,13.7751
22,'Randolph    ',138.0,1,1,1,1,0.96965,16.3296
23,'CollCrnr    ',138.0,1,1,1,1,0.99966,21.2503
24,'Trenton     ',138.0,2,1,1,1,0.9919999999999999,21.1181
25,'TannrsCk    ',138.0,2,1,1,1,1.05,28.1844
26,'TannrsCk    ',138.0,2,1,1,1,1.015,29.965
27,'Madison     ',138.0,2,1,1,1,0.968,15.6126
28,'Mullin      ',138.0,1,1,1,1,0.96157,13.888
29,'Grant       ',138.0,1,1,1,1,0.9632200000000001,12.8956
30,'Sorenson    ',138.0,1,1,1,1,0.98552,19.0402
31,'DeerCrk     ',138.0,2,1,1,1,0.967,13.0125
32,'Delaware    ',138.0,2,1,1,1,0.96359,15.06
33,'Haviland    ',138.0,1,1,1,1,0.97156,10.8645
34,'Rockhill    ',138.0,2,1,1,1,0.98586,11.5065
35,'WestLima    ',138.0,1,1,1,1,0.9806800000000001,11.0793
36,'Sterling    ',138.0,2,1,1,1,0.9800000000000001,11.0837
37,'EastLima    ',138.0,1,1,1,1,0.99198,11.9703
38,'EastLima    ',138.0,1,1,1,1,0.9619800000000001,17.1072
39,'NwLibrty    ',138.0,1,1,1,1,0.97045,8.5978
40,'West End    ',138.0,2,1,1,1,0.9699999999999999,7.524
41,'S.Tiffin    ',138.0,1,1,1,1,0.96683,7.0779
42,'Howard      ',138.0,2,1,1,1,0.9850000000000001,8.6734
43,'S.Kenton    ',138.0,1,1,1,1,0.9784799999999999,11.4604
44,'WMVernon    ',138.0,1,1,1,1,0.9850100000000002,13.946
45,'N.Newark    ',138.0,1,1,1,1,0.98665,15.7768
46,'W.Lancst    ',138.0,2,1,1,1,1.005,18.5827
47,'Crooksvl    ',138.0,1,1,1,1,1.01705,20.8051
48,'Zanesvll    ',138.0,1,1,1,1,1.02063,20.0253
49,'Philo       ',138.0,2,1,1,1,1.025,21.0284
50,'WCambrdg    ',138.0,1,1,1,1,1.00108,18.9894
51,'Newcmrst    ',138.0,1,1,1,1,0.96688,16.3703
52,'SCoshoct    ',138.0,1,1,1,1,0.9568199999999999,15.4169
53,'Wooster     ',138.0,1,1,1,1,0.94598,14.4419
54,'Torrey      ',138.0,2,1,1,1,0.955,15.3537
55,'Wagenhls    ',138.0,2,1,1,1,0.9520000000000001,15.0637
56,'Sunnysde    ',138.0,2,1,1,1,0.954,15.2504
57,'WNwPhil1    ',138.0,1,1,1,1,0.9705800000000001,16.4552
58,'WNwPhil2    ',138.0,1,1,1,1,0.95904,15.5984
59,'Tidd        ',138.0,2,1,1,1,0.9850000000000001,19.453
60,'SWKammer    ',138.0,1,1,1,1,0.99316,23.2343
61,'W.Kammer    ',138.0,2,1,1,1,0.995,24.1257
62,'Natrium     ',138.0,2,1,1,1,0.9979999999999999,23.5091
63,'Tidd        ',138.0,1,1,1,1,0.9687400000000002,22.8316
64,'Kammer      ',138.0,1,1,1,1,0.9837399999999998,24.5973
65,'Muskngum    ',138.0,2,1,1,1,1.005,27.7224
66,'Muskngum    ',138.0,2,1,1,1,1.05,27.5634
67,'Summerfl    ',138.0,1,1,1,1,1.01968,24.9235
68,'Sporn       ',138.0,1,1,1,1,1.00325,27.6013
69,'Sporn       ',138.0,3,1,1,1,1.035,30.0
70,'Portsmth    ',138.0,2,1,1,1,0.984,22.6205
71,'NPortsmt    ',138.0,1,1,1,1,0.98684,22.2096
72,'Hillsbro    ',138.0,2,1,1,1,0.9800000000000001,21.112
73,'Sargents    ',138.0,2,1,1,1,0.9910000000000001,21.9981
74,'Bellefnt    ',138.0,2,1,1,1,0.9580000000000001,21.6718
75,'SthPoint    ',138.0,1,1,1,1,0.9673300000000001,22.9337
76,'Darrah      ',138.0,2,1,1,1,0.943,21.8042
77,'Turner      ',138.0,2,1,1,1,1.006,26.7587
78,'Chemical    ',138.0,1,1,1,1,1.00342,26.4549
79,'CapitlHl    ',138.0,1,1,1,1,1.00922,26.7541
80,'CabinCrk    ',138.0,2,1,1,1,1.04,28.9999
81,'Kanawha     ',138.0,1,1,1,1,0.99681,28.1508
82,'Logan       ',138.0,1,1,1,1,0.9887400000000001,27.2804
83,'Sprigg      ',138.0,1,1,1,1,0.9845199999999998,28.4707
84,'BetsyLne    ',138.0,1,1,1,1,0.97975,31.0046
85,'BeaverCk    ',138.0,2,1,1,1,0.9850000000000001,32.5588
86,'Hazard      ',138.0,1,1,1,1,0.98669,31.1894
87,'Pinevlle    ',138.0,2,1,1,1,1.015,31.4486
88,'Fremont     ',138.0,1,1,1,1,0.9874599999999999,35.6902
89,'ClinchRv    ',138.0,2,1,1,1,1.005,39.7458
90,'Holston     ',138.0,2,1,1,1,0.9850000000000001,33.3411
91,'HolstonT    ',138.0,2,1,1,1,0.9800000000000001,33.3601
92,'Saltvlle    ',138.0,2,1,1,1,0.99228,33.8592
93,'Tazewell    ',138.0,1,1,1,1,0.98691,30.8481
94,'Switchbk    ',138.0,1,1,1,1,0.99057,28.6941
95,'Caldwell    ',138.0,1,1,1,1,0.98092,27.7218
96,'Baileysv    ',138.0,1,1,1,1,0.99267,27.5539
97,'Sundial     ',138.0,1,1,1,1,1.01137,27.9264
98,'Bradley     ',138.0,1,1,1,1,1.02351,27.4497
99,'Hinton      ',138.0,2,1,1,1,1.01,27.0891
100,'Glen Lyn    ',138.0,2,1,1,1,1.017,28.0863
101,'Wythe       ',138.0,1,1,1,1,0.9924399999999999,29.6586
102,'Smythe      ',138.0,1,1,1,1,0.9910000000000001,32.356
103,'Claytor     ',138.0,2,1,1,1,1.00072,24.4935
104,'Hancock     ',138.0,2,1,1,1,0.971,21.7479
105,'Roanoke     ',138.0,2,1,1,1,0.96599,20.6259
106,'Cloverdl    ',138.0,1,1,1,1,0.96179,20.3778
107,'Reusens     ',138.0,2,1,1,1,0.9520000000000001,17.5878
108,'Blaine      ',138.0,1,1,1,1,0.9668100000000001,19.4352
109,'Franklin    ',138.0,1,1,1,1,0.96746,18.9861
110,'Fieldale    ',138.0,2,1,1,1,0.973,18.1474
111,'DanRiver    ',138.0,2,1,1,1,0.9800000000000001,19.7925
112,'Danville    ',138.0,2,1,1,1,0.9749999999999999,15.0482
113,'Deer Crk    ',138.0,2,1,1,1,0.993,14.0037
114,'WMedford    ',138.0,1,1,1,1,0.96044,14.7298
115,'Medford     ',138.0,1,1,1,1,0.96032,14.7221
116,'KygerCrk    ',138.0,2,1,1,1,1.005,27.1664
117,'Corey       ',138.0,1,1,1,1,0.9738199999999999,10.9583
118,'WHuntngd    ',138.0,1,1,1,1,0.94944,21.9462
0 / END OF BUS DATA, BEGIN LOAD DATA
1,'1 ',1,1,1,51.0,27.0,0.0,0.0,0.0,-0.0,1,1
2,'1 ',1,1,1,20.0,9.0,0.0,0.0,0.0,-0.0,1,1
3,'1 ',1,1,1,39.0,10.0,0.0,0.0,0.0,-0.0,1,1
4,'1 ',1,1,1,39.0,12.0,0.0,0.0,0.0,-0.0,1,1
6,'1 ',1,1,1,52.0,22.0,0.0,0.0,0.0,-0.0,1,1
7,'1 ',1,1,1,19.0,2.0,0.0,0.0,0.0,-0.0,1,1
8,'1 ',1,1,1,28.0,0.0,0.0,0.0,0.0,-0.0,1,1
11,'1 ',1,1,1,70.0,23.0,0.0,0.0,0.0,-0.0,1,1
12,'1 ',1,1,1,47.0,10.0,0.0,0.0,0.0,-0.0,1,1
13,'1 ',1,1,1,34.0,16.0,0.0,0.0,0.0,-0.0,1,1
14,'1 ',1,1,1,14.0,1.0,0.0,0.0,0.0,-0.0,1,1
15,'1 ',1,1,1,90.0,30.0,0.0,0.0,0.0,-0.0,1,1
16,'1 ',1,1,1,25.0,10.0,0.0,0.0,0.0,-0.0,1,1
17,'1 ',1,1,1,11.0,3.0,0.0,0.0,0.0,-0.0,1,1
18,'1 ',1,1,1,60.0,34.0,0.0,0.0,0.0,-0.0,1,1
19,'1 ',1,1,1,45.0,25.0,0.0,0.0,0.0,-0.0,1,1
20,'1 ',1,1,1,18.0,3.0,0.0,0.0,0.0,-0.0,1,1
21,'1 ',1,1,1,14.0,8.0,0.0,0.0,0.0,-0.0,1,1
22,'1 ',1,1,1,10.0,5.0,0.0,0.0,0.0,-0.0,1,1
23,'1 ',1,1,1,7.0,3.0,0.0,0.0,0.0,-0.0,1,1
24,'1 ',1,1,1,13.0,0.0,0.0,0.0,0.0,-0.0,1,1
27,'1 ',1,1,1,71.0,13.0,0.0,0.0,0.0,-0.0,1,1
28,'1 ',1,1,1,17.0,7.0,0.0,0.0,0.0,-0.0,1,1
29,'1 ',1,1,1,24.0,4.0,0.0,0.0,0.0,-0.0,1,1
31,'1 ',1,1,1,43.0,27.0,0.0,0.0,0.0,-0.0,1,1
32,'1 ',1,1,1,59.0,23.0,0.0,0.0,0.0,-0.0,1,1
33,'1 ',1,1,1,23.0,9.0,0.0,0.0,0.0,-0.0,1,1
34,'1 ',1,1,1,59.0,26.0,0.0,0.0,0.0,-0.0,1,1
35,'1 ',1,1,1,33.0,9.0,0.0,0.0,0.0,-0.0,1,1
36,'1 ',1,1,1,31.0,17.0,0.0,0.0,0.0,-0.0,1,1
39,'1 ',1,1,1,27.0,11.0,0.0,0.0,0.0,-0.0,1,1
40,'1 ',1,1,1,66.0,23.0,0.0,0.0,0.0,-0.0,1,1
41,'1 ',1,1,1,37.0,10.0,0.0,0.0,0.0,-0.0,1,1
42,'1 ',1,1,1,96.0,23.0,0.0,0.0,0.0,-0.0,1,1
43,'1 ',1,1,1,18.0,7.0,0.0,0.0,0.0,-0.0,1,1
44,'1 ',1,1,1,16.0,8.0,0.0,0.0,0.0,-0.0,1,1
45,'1 ',1,1,1,53.0,22.0,0.0,0.0,0.0,-0.0,1,1
46,'1 ',1,1,1,28.0,10.0,0.0,0.0,0.0,-0.0,1,1
47,'1 ',1,1,1,34.0,0.0,0.0,0.0,0.0,-0.0,1,1
48,'1 ',1,1,1,20.0,11.0,0.0,0.0,0.0,-0.0,1,1
49,'1 ',1,1,1,87.0,30.0,0.0,0.0,0.0,-0.0,1,1
50,'1 ',1,1,1,17.0,4.0,0.0,0.0,0.0,-0.0,1,1
51,'1 ',1,1,1,17.0,8.0,0.0,0.0,0.0,-0.0,1,1
52,'1 ',1,1,1,18.0,5.0,0.0,0.0,0.0,-0.0,1,1
53,'1 ',1,1,1,23.0,11.0,0.0,0.0,0.0,-0.0,1,1
54,'1 ',1,1,1,113.0,32.0,0.0,0.0,0.0,-0.0,1,1
55,'1 ',1,1,1,63.0,22.0,0.0,0.0,0.0,-0.0,1,1
56,'1 ',1,1,1,84.0,18.0,0.0,0.0,0.0,-0.0,1,1
57,'1 ',1,1,1,12.0,3.0,0.0,0.0,0.0,-0.0,1,1
58,'1 ',1,1,1,12.0,3.0,0.0,0.0,0.0,-0.0,1,1
59,'1 ',1,1,1,277.0,113.0,0.0,0.0,0.0,-0.0,1,1
60,'1 ',1,1,1,78.0,3.0,0.0,0.0,0.0,-0.0,1,1
62,'1 ',1,1,1,77.0,14.0,0.0,0.0,0.0,-0.0,1,1
66,'1 ',1,1,1,39.0,18.0,0.0,0.0,0.0,-0.0,1,1
67,'1 ',1,1,1,28.0,7.0,0.0,0.0,0.0,-0.0,1,1
70,'1 ',1,1,1,66.0,20.0,0.0,0.0,0.0,-0.0,1,1
72,'1 ',1,1,1,12.0,0.0,0.0,0.0,0.0,-0.0,1,1
73,'1 ',1,1,1,6.0,0.0,0.0,0.0,0.0,-0.0,1,1
74,'1 ',1,1,1,68.0,27.0,0.0,0.0,0.0,-0.0,1,1
75,'1 ',1,1,1,47.0,11.0,0.0,0.0,0.0,-0.0,1,1
76,'1 ',1,1,1,68.0,36.0,0.0,0.0,0.0,-0.0,1,1
77,'1 ',1,1,1,61.0,28.0,0.0,0.0,0.0,-0.0,1,1
78,'1 ',1,1,1,71.0,26.0,0.0,0.0,0.0,-0.0,1,1
79,'1 ',1,1,1,39.0,32.0,0.0,0.0,0.0,-0.0,1,1
80,'1 ',1,1,1,130.0,26.0,0.0,0.0,0.0,-0.0,1,1
82,'1 ',1,1,1,54.0,27.0,0.0,0.0,0.0,-0.0,1,1
83,'1 ',1,1,1,20.0,10.0,0.0,0.0,0.0,-0.0,1,1
84,'1 ',1,1,1,11.0,7.0,0.0,0.0,0.0,-0.0,1,1
85,'1 ',1,1,1,24.0,15.0,0.0,0.0,0.0,-0.0,1,1
86,'1 ',1,1,1,21.0,10.0,0.0,0.0,0.0,-0.0,1,1
88,'1 ',1,1,1,48.0,10.0,0.0,0.0,0.0,-0.0,1,1
90,'1 ',1,1,1,163.0,42.0,0.0,0.0,0.0,-0.0,1,1
91,'1 ',1,1,1,10.0,0.0,0.0,0.0,0.0,-0.0,1,1
92,'1 ',1,1,1,65.0,10.0,0.0,0.0,0.0,-0.0,1,1
93,'1 ',1,1,1,12.0,7.0,0.0,0.0,0.0,-0.0,1,1
94,'1 ',1,1,1,30.0,16.0,0.0,0.0,0.0,-0.0,1,1
95,'1 ',1,1,1,42.0,31.0,0.0,0.0,0.0,-0.0,1,1
96,'1 ',1,1,1,38.0,15.0,0.0,0.0,0.0,-0.0,1,1
97,'1 ',1,1,1,15.0,9.0,0.0,0.0,0.0,-0.0,1,1
98,'1 ',1,1,1,34.0,8.0,0.0,0.0,0.0,-0.0,1,1
99,'1 ',1,1,1,42.0,0.0,0.0,0.0,0.0,-0.0,1,1
100,'1 ',1,1,1,37.0,18.0,0.0,0.0,0.0,-0.0,1,1
101,'1 ',1,1,1,22.0,15.0,0.0,0.0,0.0,-0.0,1,1
102,'1 ',1,1,1,5.0,3.0,0.0,0.0,0.0,-0.0,1,1
103,'1 ',1,1,1,23.0,16.0,0.0,0.0,0.0,-0.0,1,1
104,'1 ',1,1,1,38.0,25.0,0.0,0.0,0.0,-0.0,1,1
105,'1 ',1,1,1,31.0,26.0,0.0,0.0,0.0,-0.0,1,1
106,'1 ',1,1,1,43.0,16.0,0.0,0.0,0.0,-0.0,1,1
107,'1 ',1,1,1,50.0,12.0,0.0,0.0,0.0,-0.0,1,1
108,'1 ',1,1,1,2.0,1.0,0.0,0.0,0.0,-0.0,1,1
109,'1 ',1,1,1,8.0,3.0,0.0,0.0,0.0,-0.0,1,1
110,'1 ',1,1,1,39.0,30.0,0.0,0.0,0.0,-0.0,1,1
112,'1 ',1,1,1,68.0,13.0,0.0,0.0,0.0,-0.0,1,1
113,'1 ',1,1,1,6.0,0.0,0.0,0.0,0.0,-0.0,1,1
114,'1 ',1,1,1,8.0,3.0,0.0,0.0,0.0,-0.0,1,1
115,'1 ',1,1,1,22.0,7.0,0.0,0.0,0.0,-0.0,1,1
116,'1 ',1,1,1,184.0,0.0,0.0,0.0,0.0,-0.0,1,1
117,'1 ',1,1,1,20.0,8.0,0.0,0.0,0.0,-0.0,1,1
118,'1 ',1,1,1,33.0,15.0,0.0,0.0,0.0,-0.0,1,1
0 / END OF LOAD DATA, BEGIN FIXED SHUNT DATA
5,' 1',1,0.0,-40.0
34,' 1',1,0.0,13.999999999999998
37,' 1',1,0.0,-25.0
44,' 1',1,0.0,10.0
45,' 1',1,0.0,10.0
46,' 1',1,0.0,10.0
48,' 1',1,0.0,15.0
74,' 1',1,0.0,12.0
79,' 1',1,0.0,20.0
82,' 1',1,0.0,20.0
83,' 1',1,0.0,10.0
105,' 1',1,0.0,20.0
107,' 1',1,0.0,6.0
110,' 1',1,0.0,6.0
0 / END OF FIXED SHUNT DATA, BEGIN GENERATOR DATA
1,'1 ',0.0,-3.104,15.0,-5.0,0.955,0,100.0,0.0,1.0,0.0,0.0,1.0,1,100.0,10000.0,-10000.0,1,1.0,0,1.0,0,1.0,0,1.0,0,1.0
4,'1 ',0.0,-15.005,300.0,-300.0,0.998,0,100.0,0.0,1.0,0.0,0.0,1.0,1,100.0,10000.0,-10000.0,1,1.0,0,1.0,0,1.0,0,1.0,0,1.0
6,'1 ',0.0,15.93,50.0,-13.0,0.99,0,100.0,0.0,1.0,0.0,0.0,1.0,1,100.0,10000.0,-10000.0,1,1.0,0,1.0,0,1.0,0,1.0,0,1.0
8,'1 ',0.0,62.758,300.0,-300.0,1.015,0,100.0,0.0,1.0,0.0,0.0,1.0,1,100.0,10000.0,-10000.0,1,1.0,0,1.0,0,1.0,0,1.0,0,1.0
10,'1 ',450.0,-51.042,200.0,-147.0,1.05,0,100.0,0.0,1.0,0.0,0.0,1.0,1,100.0,10000.0,-10000.0,1,1.0,0,1.0,0,1.0,0,1.0,0,1.0
12,'1 ',85.0,91.274,120.0,-35.0,0.99,0,100.0,0.0,1.0,0.0,0.0,1.0,1,100.0,10000.0,-10000.0,1,1.0,0,1.0,0,1.0,0,1.0,0,1.0
15,'1 ',0.0,3.06,30.0,-10.0,0.97,0,100.0,0.0,1.0,0.0,0.0,1.0,1,100.0,10000.0,-10000.0,1,1.0,0,1.0,0,1.0,0,1.0,0,1.0
18,'1 ',0.0,25.532,50.0,-16.0,0.973,0,100.0,0.0,1.0,0.0,0.0,1.0,1,100.0,10000.0,-10000.0,1,1.0,0,1.0,0,1.0,0,1.0,0,1.0
19,'1 ',0.0,-8.0,24.0,-8.0,0.962,0,100.0,0.0,1.0,0.0,0.0,1.0,1,100.0,10000.0,-10000.0,1,1.0,0,1.0,0,1.0,0,1.0,0,1.0
24,'1 ',0.0,-15.282,300.0,-300.0,0.992,0,100.0,0.0,1.0,0.0,0.0,1.0,1,100.0,10000.0,-10000.0,1,1.0,0,1.0,0,1.0,0,1.0,0,1.0
25,'1 ',220.0,49.798,140.0,-47.0,1.05,0,100.0,0.0,1.0,0.0,0.0,1.0,1,100.0,10000.0,-10000.0,1,1.0,0,1.0,0,1.0,0,1.0,0,1.0
26,'1 ',314.0,9.905,1000.0,-1000.0,1.015,0,100.0,0.0,1.0,0.0,0.0,1.0,1,100.0,10000.0,-10000.0,1,1.0,0,1.0,0,1.0,0,1.0,0,1.0
27,'1 ',0.0,2.831,300.0,-300.0,0.968,0,100.0,0.0,1.0,0.0,0.0,1.0,1,100.0,10000.0,-10000.0,1,1.0,0,1.0,0,1.0,0,1.0,0,1.0
31,'1 ',7.0,31.976,300.0,-300.0,0.967,0,100.0,0.0,1.0,0.0,0.0,1.0,1,100.0,10000.0,-10000.0,1,1.0,0,1.0,0,1.0,0,1.0,0,1.0
32,'1 ',0.0,-14.0,42.0,-14.0,0.963,0,100.0,0.0,1.0,0.0,0.0,1.0,1,100.0,10000.0,-10000.0,1,1.0,0,1.0,0,1.0,0,1.0,0,1.0
34,'1 ',0.0,-8.0,24.0,-8.0,0.984,0,100.0,0.0,1.0,0.0,0.0,1.0,1,100.0,10000.0,-10000.0,1,1.0,0,1.0,0,1.0,0,1.0,0,1.0
36,'1 ',0.0,-1.252,24.0,-8.0,0.98,0,100.0,0.0,1.0,0.0,0.0,1.0,1,100.0,10000.0,-10000.0,1,1.0,0,1.0,0,1.0,0,1.0,0,1.0
40,'1 ',0.0,26.886,300.0,-300.0,0.97,0,100.0,0.0,1.0,0.0,0.0,1.0,1,100.0,10000.0,-10000.0,1,1.0,0,1.0,0,1.0,0,1.0,0,1.0
42,'1 ',0.0,41.004,300.0,-300.0,0.985,0,100.0,0.0,1.0,0.0,0.0,1.0,1,100.0,10000.0,-10000.0,1,1.0,0,1.0,0,1.0,0,1.0,0,1.0
46,'1 ',19.0,-5.231,100.0,-100.0,1.005,0,100.0,0.0,1.0,0.0,0.0,1.0,1,100.0,10000.0,-10000.0,1,1.0,0,1.0,0,1.0,0,1.0,0,1.0
49,'1 ',204.0,115.647,210.0,-85.0,1.025,0,100.0,0.0,1.0,0.0,0.0,1.0,1,100.0,10000.0,-10000.0,1,1.0,0,1.0,0,1.0,0,1.0,0,1.0
54,'1 ',48.0,3.902,300.0,-300.0,0.955,0,100.0,0.0,1.0,0.0,0.0,1.0,1,100.0,10000.0,-10000.0,1,1.0,0,1.0,0,1.0,0,1.0,0,1.0
55,'1 ',0.0,4.664,23.0,-8.0,0.952,0,100.0,0.0,1.0,0.0,0.0,1.0,1,100.0,10000.0,-10000.0,1,1.0,0,1.0,0,1.0,0,1.0,0,1.0
56,'1 ',0.0,-2.286,15.0,-8.0,0.954,0,100.0,0.0,1.0,0.0,0.0,1.0,1,100.0,10000.0,-10000.0,1,1.0,0,1.0,0,1.0,0,1.0,0,1.0
59,'1 ',155.0,76.834,180.0,-60.0,0.985,0,100.0,0.0,1.0,0.0,0.0,1.0,1,100.0,10000.0,-10000.0,1,1.0,0,1.0,0,1.0,0,1.0,0,1.0
61,'1 ',160.0,-40.394,300.0,-100.0,0.995,0,100.0,0.0,1.0,0.0,0.0,1.0,1,100.0,10000.0,-10000.0,1,1.0,0,1.0,0,1.0,0,1.0,0,1.0
62,'1 ',0.0,1.259,20.0,-20.0,0.998,0,100.0,0.0,1.0,0.0,0.0,1.0,1,100.0,10000.0,-10000.0,1,1.0,0,1.0,0,1.0,0,1.0,0,1.0
65,'1 ',391.0,80.812,200.0,-67.0,1.005,0,100.0,0.0,1.0,0.0,0.0,1.0,1,100.0,10000.0,-10000.0,1,1.0,0,1.0,0,1.0,0,1.0,0,1.0
66,'1 ',392.0,-1.951,200.0,-67.0,1.05,0,100.0,0.0,1.0,0.0,0.0,1.0,1,100.0,10000.0,-10000.0,1,1.0,0,1.0,0,1.0,0,1.0,0,1.0
69,'1 ',513.388,-82.378,300.0,-300.0,1.035,0,100.0,0.0,1.0,0.0,0.0,1.0,1,100.0,10000.0,-10000.0,1,1.0,0,1.0,0,1.0,0,1.0,0,1.0
70,'1 ',0.0,9.664,32.0,-10.0,0.984,0,100.0,0.0,1.0,0.0,0.0,1.0,1,100.0,10000.0,-10000.0,1,1.0,0,1.0,0,1.0,0,1.0,0,1.0
72,'1 ',0.0,-11.13,100.0,-100.0,0.98,0,100.0,0.0,1.0,0.0,0.0,1.0,1,100.0,10000.0,-10000.0,1,1.0,0,1.0,0,1.0,0,1.0,0,1.0
73,'1 ',0.0,9.651,100.0,-100.0,0.991,0,100.0,0.0,1.0,0.0,0.0,1.0,1,100.0,10000.0,-10000.0,1,1.0,0,1.0,0,1.0,0,1.0,0,1.0
74,'1 ',0.0,-5.628,9.0,-6.0,0.958,0,100.0,0.0,1.0,0.0,0.0,1.0,1,100.0,10000.0,-10000.0,1,1.0,0,1.0,0,1.0,0,1.0,0,1.0
76,'1 ',0.0,5.269,23.0,-8.0,0.943,0,100.0,0.0,1.0,0.0,0.0,1.0,1,100.0,10000.0,-10000.0,1,1.0,0,1.0,0,1.0,0,1.0,0,1.0
77,'1 ',0.0,11.943,70.0,-20.0,1.006,0,100.0,0.0,1.0,0.0,0.0,1.0,1,100.0,10000.0,-10000.0,1,1.0,0,1.0,0,1.0,0,1.0,0,1.0
80,'1 ',477.0,105.05,280.0,-165.0,1.04,0,100.0,0.0,1.0,0.0,0.0,1.0,1,100.0,10000.0,-10000.0,1,1.0,0,1.0,0,1.0,0,1.0,0,1.0
85,'1 ',0.0,-5.768,23.0,-8.0,0.985,0,100.0,0.0,1.0,0.0,0.0,1.0,1,100.0,10000.0,-10000.0,1,1.0,0,1.0,0,1.0,0,1.0,0,1.0
87,'1 ',4.0,11.022,1000.0,-100.0,1.015,0,100.0,0.0,1.0,0.0,0.0,1.0,1,100.0,10000.0,-10000.0,1,1.0,0,1.0,0,1.0,0,1.0,0,1.0
89,'1 ',607.0,-11.794,300.0,-210.0,1.005,0,100.0,0.0,1.0,0.0,0.0,1.0,1,100.0,10000.0,-10000.0,1,1.0,0,1.0,0,1.0,0,1.0,0,1.0
90,'1 ',0.0,59.3,300.0,-300.0,0.985,0,100.0,0.0,1.0,0.0,0.0,1.0,1,100.0,10000.0,-10000.0,1,1.0,0,1.0,0,1.0,0,1.0,0,1.0
91,'1 ',0.0,-14.847,100.0,-100.0,0.98,0,100.0,0.0,1.0,0.0,0.0,1.0,1,100.0,10000.0,-10000.0,1,1.0,0,1.0,0,1.0,0,1.0,0,1.0
92,'1 ',0.0,-3.0,9.0,-3.0,0.99,0,100.0,0.0,1.0,0.0,0.0,1.0,1,100.0,10000.0,-10000.0,1,1.0,0,1.0,0,1.0,0,1.0,0,1.0
99,'1 ',0.0,-17.537,100.0,-100.0,1.01,0,100.0,0.0,1.0,0.0,0.0,1.0,1,100.0,10000.0,-10000.0,1,1.0,0,1.0,0,1.0,0,1.0,0,1.0
100,'1 ',252.0,110.058,155.0,-50.0,1.017,0,100.0,0.0,1.0,0.0,0.0,1.0,1,100.0,10000.0,-10000.0,1,1.0,0,1.0,0,1.0,0,1.0,0,1.0
103,'1 ',40.0,40.0,40.0,-15.0,1.01,0,100.0,0.0,1.0,0.0,0.0,1.0,1,100.0,10000.0,-10000.0,1,1.0,0,1.0,0,1.0,0,1.0,0,1.0
104,'1 ',0.0,5.643,23.0,-8.0,0.971,0,100.0,0.0,1.0,0.0,0.0,1.0,1,100.0,10000.0,-10000.0,1,1.0,0,1.0,0,1.0,0,1.0,0,1.0
105,'1 ',0.0,-8.0,23.0,-8.0,0.965,0,100.0,0.0,1.0,0.0,0.0,1.0,1,100.0,10000.0,-10000.0,1,1.0,0,1.0,0,1.0,0,1.0,0,1.0
107,'1 ',0.0,5.694,200.0,-200.0,0.952,0,100.0,0.0,1.0,0.0,0.0,1.0,1,100.0,10000.0,-10000.0,1,1.0,0,1.0,0,1.0,0,1.0,0,1.0
110,'1 ',0.0,4.854,23.0,-8.0,0.973,0,100.0,0.0,1.0,0.0,0.0,1.0,1,100.0,10000.0,-10000.0,1,1.0,0,1.0,0,1.0,0,1.0,0,1.0
111,'1 ',36.0,-1.844,1000.0,-100.0,0.98,0,100.0,0.0,1.0,0.0,0.0,1.0,1,100.0,10000.0,-10000.0,1,1.0,0,1.0,0,1.0,0,1.0,0,1.0
112,'1 ',0.0,41.512,1000.0,-100.0,0.975,0,100.0,0.0,1.0,0.0,0.0,1.0,1,100.0,10000.0,-10000.0,1,1.0,0,1.0,0,1.0,0,1.0,0,1.0
113,'1 ',0.0,6.323,200.0,-100.0,0.993,0,100.0,0.0,1.0,0.0,0.0,1.0,1,100.0,10000.0,-10000.0,1,1.0,0,1.0,0,1.0,0,1.0,0,1.0
116,'1 ',0.0,51.324,1000.0,-1000.0,1.005,0,100.0,0.0,1.0,0.0,0.0,1.0,1,100.0,10000.0,-10000.0,1,1.0,0,1.0,0,1.0,0,1.0,0,1.0
0 / END OF GENERATOR DATA, BEGIN BRANCH DATA
1,2,'1 ',0.0303,0.0999,0.0254,0.0,0.0,0.0,0.0,0.0,0.0,0.0,1,1,0.0,1,1.0,0,1.0,0,1.0,0,1.0
1,3,'1 ',0.0129,0.0424,0.01082,0.0,0.0,0.0,0.0,0.0,0.0,0.0,1,1,0.0,1,1.0,0,1.0,0,1.0,0,1.0
2,12,'1 ',0.0187,0.0616,0.01572,0.0,0.0,0.0,0.0,0.0,0.0,0.0,1,1,0.0,1,1.0,0,1.0,0,1.0,0,1.0
3,5,'1 ',0.0241,0.108,0.0284,0.0,0.0,0.0,0.0,0.0,0.0,0.0,1,1,0.0,1,1.0,0,1.0,0,1.0,0,1.0
3,12,'1 ',0.0484,0.16,0.0406,0.0,0.0,0.0,0.0,0.0,0.0,0.0,1,1,0.0,1,1.0,0,1.0,0,1.0,0,1.0
4,5,'1 ',0.00176,0.00798,0.0021,0.0,0.0,0.0,0.0,0.0,0.0,0.0,1,1,0.0,1,1.0,0,1.0,0,1.0,0,1.0
4,11,'1 ',0.0209,0.0688,0.01748,0.0,0.0,0.0,0.0,0.0,0.0,0.0,1,1,0.0,1,1.0,0,1.0,0,1.0,0,1.0
5,6,'1 ',0.0119,0.054,0.01426,0.0,0.0,0.0,0.0,0.0,0.0,0.0,1,1,0.0,1,1.0,0,1.0,0,1.0,0,1.0
5,11,'1 ',0.0203,0.0682,0.01738,0.0,0.0,0.0,0.0,0.0,0.0,0.0,1,1,0.0,1,1.0,0,1.0,0,1.0,0,1.0
6,7,'1 ',0.00459,0.0208,0.0055,0.0,0.0,0.0,0.0,0.0,0.0,0.0,1,1,0.0,1,1.0,0,1.0,0,1.0,0,1.0
7,12,'1 ',0.00862,0.034,0.00874,0.0,0.0,0.0,0.0,0.0,0.0,0.0,1,1,0.0,1,1.0,0,1.0,0,1.0,0,1.0
8,9,'1 ',0.00244,0.0305,1.162,0.0,0.0,0.0,0.0,0.0,0.0,0.0,1,1,0.0,1,1.0,0,1.0,0,1.0,0,1.0
8,30,'1 ',0.00431,0.0504,0.514,0.0,0.0,0.0,0.0,0.0,0.0,0.0,1,1,0.0,1,1.0,0,1.0,0,1.0,0,1.0
9,10,'1 ',0.00258,0.0322,1.23,0.0,0.0,0.0,0.0,0.0,0.0,0.0,1,1,0.0,1,1.0,0,1.0,0,1.0,0,1.0
11,12,'1 ',0.00595,0.0196,0.00502,0.0,0.0,0.0,0.0,0.0,0.0,0.0,1,1,0.0,1,1.0,0,1.0,0,1.0,0,1.0
11,13,'1 ',0.02225,0.0731,0.01876,0.0,0.0,0.0,0.0,0.0,0.0,0.0,1,1,0.0,1,1.0,0,1.0,0,1.0,0,1.0
12,14,'1 ',0.0215,0.0707,0.01816,0.0,0.0,0.0,0.0,0.0,0.0,0.0,1,1,0.0,1,1.0,0,1.0,0,1.0,0,1.0
12,16,'1 ',0.0212,0.0834,0.0214,0.0,0.0,0.0,0.0,0.0,0.0,0.0,1,1,0.0,1,1.0,0,1.0,0,1.0,0,1.0
12,117,'1 ',0.0329,0.14,0.0358,0.0,0.0,0.0,0.0,0.0,0.0,0.0,1,1,0.0,1,1.0,0,1.0,0,1.0,0,1.0
13,15,'1 ',0.0744,0.2444,0.06268,0.0,0.0,0.0,0.0,0.0,0.0,0.0,1,1,0.0,1,1.0,0,1.0,0,1.0,0,1.0
14,15,'1 ',0.0595,0.195,0.0502,0.0,0.0,0.0,0.0,0.0,0.0,0.0,1,1,0.0,1,1.0,0,1.0,0,1.0,0,1.0
15,17,'1 ',0.0132,0.0437,0.0444,0.0,0.0,0.0,0.0,0.0,0.0,0.0,1,1,0.0,1,1.0,0,1.0,0,1.0,0,1.0
15,19,'1 ',0.012,0.0394,0.0101,0.0,0.0,0.0,0.0,0.0,0.0,0.0,1,1,0.0,1,1.0,0,1.0,0,1.0,0,1.0
15,33,'1 ',0.038,0.1244,0.03194,0.0,0.0,0.0,0.0,0.0,0.0,0.0,1,1,0.0,1,1.0,0,1.0,0,1.0,0,1.0
16,17,'1 ',0.0454,0.1801,0.0466,0.0,0.0,0.0,0.0,0.0,0.0,0.0,1,1,0.0,1,1.0,0,1.0,0,1.0,0,1.0
17,18,'1 ',0.0123,0.0505,0.01298,0.0,0.0,0.0,0.0,0.0,0.0,0.0,1,1,0.0,1,1.0,0,1.0,0,1.0,0,1.0
17,31,'1 ',0.0474,0.1563,0.0399,0.0,0.0,0.0,0.0,0.0,0.0,0.0,1,1,0.0,1,1.0,0,1.0,0,1.0,0,1.0
17,113,'1 ',0.00913,0.0301,0.00768,0.0,0.0,0.0,0.0,0.0,0.0,0.0,1,1,0.0,1,1.0,0,1.0,0,1.0,0,1.0
18,19,'1 ',0.01119,0.0493,0.01142,0.0,0.0,0.0,0.0,0.0,0.0,0.0,1,1,0.0,1,1.0,0,1.0,0,1.0,0,1.0
19,20,'1 ',0.0252,0.117,0.0298,0.0,0.0,0.0,0.0,0.0,0.0,0.0,1,1,0.0,1,1.0,0,1.0,0,1.0,0,1.0
19,34,'1 ',0.0752,0.247,0.0632,0.0,0.0,0.0,0.0,0.0,0.0,0.0,1,1,0.0,1,1.0,0,1.0,0,1.0,0,1.0
20,21,'1 ',0.0183,0.0849,0.0216,0.0,0.0,0.0,0.0,0.0,0.0,0.0,1,1,0.0,1,1.0,0,1.0,0,1.0,0,1.0
21,22,'1 ',0.0209,0.097,0.0246,0.0,0.0,0.0,0.0,0.0,0.0,0.0,1,1,0.0,1,1.0,0,1.0,0,1.0,0,1.0
22,23,'1 ',0.0342,0.159,0.0404,0.0,0.0,0.0,0.0,0.0,0.0,0.0,1,1,0.0,1,1.0,0,1.0,0,1.0,0,1.0
23,24,'1 ',0.0135,0.0492,0.0498,0.0,0.0,0.0,0.0,0.0,0.0,0.0,1,1,0.0,1,1.0,0,1.0,0,1.0,0,1.0
23,25,'1 ',0.0156,0.08,0.0864,0.0,0.0,0.0,0.0,0.0,0.0,0.0,1,1,0.0,1,1.0,0,1.0,0,1.0,0,1.0
23,32,'1 ',0.0317,0.1153,0.1173,0.0,0.0,0.0,0.0,0.0,0.0,0.0,1,1,0.0,1,1.0,0,1.0,0,1.0,0,1.0
24,70,'1 ',0.00221,0.4115,0.10198,0.0,0.0,0.0,0.0,0.0,0.0,0.0,1,1,0.0,1,1.0,0,1.0,0,1.0,0,1.0
24,72,'1 ',0.0488,0.196,0.0488,0.0,0.0,0.0,0.0,0.0,0.0,0.0,1,1,0.0,1,1.0,0,1.0,0,1.0,0,1.0
25,27,'1 ',0.0318,0.163,0.1764,0.0,0.0,0.0,0.0,0.0,0.0,0.0,1,1,0.0,1,1.0,0,1.0,0,1.0,0,1.0
26,30,'1 ',0.00799,0.086,0.908,0.0,0.0,0.0,0.0,0.0,0.0,0.0,1,1,0.0,1,1.0,0,1.0,0,1.0,0,1.0
27,28,'1 ',0.01913,0.0855,0.0216,0.0,0.0,0.0,0.0,0.0,0.0,0.0,1,1,0.0,1,1.0,0,1.0,0,1.0,0,1.0
27,32,'1 ',0.0229,0.0755,0.01926,0.0,0.0,0.0,0.0,0.0,0.0,0.0,1,1,0.0,1,1.0,0,1.0,0,1.0,0,1.0
27,115,'1 ',0.0164,0.0741,0.01972,0.0,0.0,0.0,0.0,0.0,0.0,0.0,1,1,0.0,1,1.0,0,1.0,0,1.0,0,1.0
28,29,'1 ',0.0237,0.0943,0.0238,0.0,0.0,0.0,0.0,0.0,0.0,0.0,1,1,0.0,1,1.0,0,1.0,0,1.0,0,1.0
29,31,'1 ',0.0108,0.0331,0.0083,0.0,0.0,0.0,0.0,0.0,0.0,0.0,1,1,0.0,1,1.0,0,1.0,0,1.0,0,1.0
30,38,'1 ',0.00464,0.054,0.422,0.0,0.0,0.0,0.0,0.0,0.0,0.0,1,1,0.0,1,1.0,0,1.0,0,1.0,0,1.0
31,32,'1 ',0.0298,0.0985,0.0251,0.0,0.0,0.0,0.0,0.0,0.0,0.0,1,1,0.0,1,1.0,0,1.0,0,1.0,0,1.0
32,113,'1 ',0.0615,0.203,0.0518,0.0,0.0,0.0,0.0,0.0,0.0,0.0,1,1,0.0,1,1.0,0,1.0,0,1.0,0,1.0
32,114,'1 ',0.0135,0.0612,0.01628,0.0,0.0,0.0,0.0,0.0,0.0,0.0,1,1,0.0,1,1.0,0,1.0,0,1.0,0,1.0
33,37,'1 ',0.0415,0.142,0.0366,0.0,0.0,0.0,0.0,0.0,0.0,0.0,1,1,0.0,1,1.0,0,1.0,0,1.0,0,1.0
34,36,'1 ',0.00871,0.0268,0.00568,0.0,0.0,0.0,0.0,0.0,0.0,0.0,1,1,0.0,1,1.0,0,1.0,0,1.0,0,1.0
34,37,'1 ',0.00256,0.0094,0.00984,0.0,0.0,0.0,0.0,0.0,0.0,0.0,1,1,0.0,1,1.0,0,1.0,0,1.0,0,1.0
34,43,'1 ',0.0413,0.1681,0.04226,0.0,0.0,0.0,0.0,0.0,0.0,0.0,1,1,0.0,1,1.0,0,1.0,0,1.0,0,1.0
35,36,'1 ',0.00224,0.0102,0.00268,0.0,0.0,0.0,0.0,0.0,0.0,0.0,1,1,0.0,1,1.0,0,1.0,0,1.0,0,1.0
35,37,'1 ',0.011,0.0497,0.01318,0.0,0.0,0.0,0.0,0.0,0.0,0.0,1,1,0.0,1,1.0,0,1.0,0,1.0,0,1.0
37,39,'1 ',0.0321,0.106,0.027,0.0,0.0,0.0,0.0,0.0,0.0,0.0,1,1,0.0,1,1.0,0,1.0,0,1.0,0,1.0
37,40,'1 ',0.0593,0.168,0.042,0.0,0.0,0.0,0.0,0.0,0.0,0.0,1,1,0.0,1,1.0,0,1.0,0,1.0,0,1.0
38,65,'1 ',0.00901,0.0986,1.046,0.0,0.0,0.0,0.0,0.0,0.0,0.0,1,1,0.0,1,1.0,0,1.0,0,1.0,0,1.0
39,40,'1 ',0.0184,0.0605,0.01552,0.0,0.0,0.0,0.0,0.0,0.0,0.0,1,1,0.0,1,1.0,0,1.0,0,1.0,0,1.0
40,41,'1 ',0.0145,0.0487,0.01222,0.0,0.0,0.0,0.0,0.0,0.0,0.0,1,1,0.0,1,1.0,0,1.0,0,1.0,0,1.0
40,42,'1 ',0.0555,0.183,0.0466,0.0,0.0,0.0,0.0,0.0,0.0,0.0,1,1,0.0,1,1.0,0,1.0,0,1.0,0,1.0
41,42,'1 ',0.041,0.135,0.0344,0.0,0.0,0.0,0.0,0.0,0.0,0.0,1,1,0.0,1,1.0,0,1.0,0,1.0,0,1.0
42,49,'1 ',0.0715,0.323,0.086,0.0,0.0,0.0,0.0,0.0,0.0,0.0,1,1,0.0,1,1.0,0,1.0,0,1.0,0,1.0
42,49,'2 ',0.0715,0.323,0.086,0.0,0.0,0.0,0.0,0.0,0.0,0.0,1,1,0.0,1,1.0,0,1.0,0,1.0,0,1.0
43,44,'1 ',0.0608,0.2454,0.06068,0.0,0.0,0.0,0.0,0.0,0.0,0.0,1,1,0.0,1,1.0,0,1.0,0,1.0,0,1.0
44,45,'1 ',0.0224,0.0901,0.0224,0.0,0.0,0.0,0.0,0.0,0.0,0.0,1,1,0.0,1,1.0,0,1.0,0,1.0,0,1.0
45,46,'1 ',0.04,0.1356,0.0332,0.0,0.0,0.0,0.0,0.0,0.0,0.0,1,1,0.0,1,1.0,0,1.0,0,1.0,0,1.0
45,49,'1 ',0.0684,0.186,0.0444,0.0,0.0,0.0,0.0,0.0,0.0,0.0,1,1,0.0,1,1.0,0,1.0,0,1.0,0,1.0
46,47,'1 ',0.038,0.127,0.0316,0.0,0.0,0.0,0.0,0.0,0.0,0.0,1,1,0.0,1,1.0,0,1.0,0,1.0,0,1.0
46,48,'1 ',0.0601,0.189,0.0472,0.0,0.0,0.0,0.0,0.0,0.0,0.0,1,1,0.0,1,1.0,0,1.0,0,1.0,0,1.0
47,49,'1 ',0.0191,0.0625,0.01604,0.0,0.0,0.0,0.0,0.0,0.0,0.0,1,1,0.0,1,1.0,0,1.0,0,1.0,0,1.0
47,69,'1 ',0.0844,0.2778,0.07092,0.0,0.0,0.0,0.0,0.0,0.0,0.0,1,1,0.0,1,1.0,0,1.0,0,1.0,0,1.0
48,49,'1 ',0.0179,0.0505,0.01258,0.0,0.0,0.0,0.0,0.0,0.0,0.0,1,1,0.0,1,1.0,0,1.0,0,1.0,0,1.0
49,50,'1 ',0.0267,0.0752,0.01874,0.0,0.0,0.0,0.0,0.0,0.0,0.0,1,1,0.0,1,1.0,0,1.0,0,1.0,0,1.0
49,51,'1 ',0.0486,0.137,0.0342,0.0,0.0,0.0,0.0,0.0,0.0,0.0,1,1,0.0,1,1.0,0,1.0,0,1.0,0,1.0
49,54,'1 ',0.073,0.289,0.0738,0.0,0.0,0.0,0.0,0.0,0.0,0.0,1,1,0.0,1,1.0,0,1.0,0,1.0,0,1.0
49,54,'2 ',0.0869,0.291,0.073,0.0,0.0,0.0,0.0,0.0,0.0,0.0,1,1,0.0,1,1.0,0,1.0,0,1.0,0,1.0
49,66,'1 ',0.018,0.0919,0.0248,0.0,0.0,0.0,0.0,0.0,0.0,0.0,1,1,0.0,1,1.0,0,1.0,0,1.0,0,1.0
49,66,'2 ',0.018,0.0919,0.0248,0.0,0.0,0.0,0.0,0.0,0.0,0.0,1,1,0.0,1,1.0,0,1.0,0,1.0,0,1.0
49,69,'1 ',0.0985,0.324,0.0828,0.0,0.0,0.0,0.0,0.0,0.0,0.0,1,1,0.0,1,1.0,0,1.0,0,1.0,0,1.0
50,57,'1 ',0.0474,0.134,0.0332,0.0,0.0,0.0,0.0,0.0,0.0,0.0,1,1,0.0,1,1.0,0,1.0,0,1.0,0,1.0
51,52,'1 ',0.0203,0.0588,0.01396,0.0,0.0,0.0,0.0,0.0,0.0,0.0,1,1,0.0,1,1.0,0,1.0,0,1.0,0,1.0
51,58,'1 ',0.0255,0.0719,0.01788,0.0,0.0,0.0,0.0,0.0,0.0,0.0,1,1,0.0,1,1.0,0,1.0,0,1.0,0,1.0
52,53,'1 ',0.0405,0.1635,0.04058,0.0,0.0,0.0,0.0,0.0,0.0,0.0,1,1,0.0,1,1.0,0,1.0,0,1.0,0,1.0
53,54,'1 ',0.0263,0.122,0.031,0.0,0.0,0.0,0.0,0.0,0.0,0.0,1,1,0.0,1,1.0,0,1.0,0,1.0,0,1.0
54,55,'1 ',0.0169,0.0707,0.0202,0.0,0.0,0.0,0.0,0.0,0.0,0.0,1,1,0.0,1,1.0,0,1.0,0,1.0,0,1.0
54,56,'1 ',0.00275,0.00955,0.00732,0.0,0.0,0.0,0.0,0.0,0.0,0.0,1,1,0.0,1,1.0,0,1.0,0,1.0,0,1.0
54,59,'1 ',0.0503,0.2293,0.0598,0.0,0.0,0.0,0.0,0.0,0.0,0.0,1,1,0.0,1,1.0,0,1.0,0,1.0,0,1.0
55,56,'1 ',0.00488,0.0151,0.00374,0.0,0.0,0.0,0.0,0.0,0.0,0.0,1,1,0.0,1,1.0,0,1.0,0,1.0,0,1.0
55,59,'1 ',0.04739,0.2158,0.05646,0.0,0.0,0.0,0.0,0.0,0.0,0.0,1,1,0.0,1,1.0,0,1.0,0,1.0,0,1.0
56,57,'1 ',0.0343,0.0966,0.0242,0.0,0.0,0.0,0.0,0.0,0.0,0.0,1,1,0.0,1,1.0,0,1.0,0,1.0,0,1.0
56,58,'1 ',0.0343,0.0966,0.0242,0.0,0.0,0.0,0.0,0.0,0.0,0.0,1,1,0.0,1,1.0,0,1.0,0,1.0,0,1.0
56,59,'1 ',0.0825,0.251,0.0569,0.0,0.0,0.0,0.0,0.0,0.0,0.0,1,1,0.0,1,1.0,0,1.0,0,1.0,0,1.0
56,59,'2 ',0.0803,0.239,0.0536,0.0,0.0,0.0,0.0,0.0,0.0,0.0,1,1,0.0,1,1.0,0,1.0,0,1.0,0,1.0
59,60,'1 ',0.0317,0.145,0.0376,0.0,0.0,0.0,0.0,0.0,0.0,0.0,1,1,0.0,1,1.0,0,1.0,0,1.0,0,1.0
59,61,'1 ',0.0328,0.15,0.0388,0.0,0.0,0.0,0.0,0.0,0.0,0.0,1,1,0.0,1,1.0,0,1.0,0,1.0,0,1.0
60,61,'1 ',0.00264,0.0135,0.01456,0.0,0.0,0.0,0.0,0.0,0.0,0.0,1,1,0.0,1,1.0,0,1.0,0,1.0,0,1.0
60,62,'1 ',0.0123,0.0561,0.01468,0.0,0.0,0.0,0.0,0.0,0.0,0.0,1,1,0.0,1,1.0,0,1.0,0,1.0,0,1.0
61,62,'1 ',0.00824,0.0376,0.0098,0.0,0.0,0.0,0.0,0.0,0.0,0.0,1,1,0.0,1,1.0,0,1.0,0,1.0,0,1.0
62,66,'1 ',0.0482,0.218,0.0578,0.0,0.0,0.0,0.0,0.0,0.0,0.0,1,1,0.0,1,1.0,0,1.0,0,1.0,0,1.0
62,67,'1 ',0.0258,0.117,0.031,0.0,0.0,0.0,0.0,0.0,0.0,0.0,1,1,0.0,1,1.0,0,1.0,0,1.0,0,1.0
63,64,'1 ',0.00172,0.02,0.216,0.0,0.0,0.0,0.0,0.0,0.0,0.0,1,1,0.0,1,1.0,0,1.0,0,1.0,0,1.0
64,65,'1 ',0.00269,0.0302,0.38,0.0,0.0,0.0,0.0,0.0,0.0,0.0,1,1,0.0,1,1.0,0,1.0,0,1.0,0,1.0
65,68,'1 ',0.00138,0.016,0.638,0.0,0.0,0.0,0.0,0.0,0.0,0.0,1,1,0.0,1,1.0,0,1.0,0,1.0,0,1.0
66,67,'1 ',0.0224,0.1015,0.02682,0.0,0.0,0.0,0.0,0.0,0.0,0.0,1,1,0.0,1,1.0,0,1.0,0,1.0,0,1.0
68,81,'1 ',0.00175,0.0202,0.808,0.0,0.0,0.0,0.0,0.0,0.0,0.0,1,1,0.0,1,1.0,0,1.0,0,1.0,0,1.0
68,116,'1 ',3.4E-4,0.00405,0.164,0.0,0.0,0.0,0.0,0.0,0.0,0.0,1,1,0.0,1,1.0,0,1.0,0,1.0,0,1.0
69,70,'1 ',0.03,0.127,0.122,0.0,0.0,0.0,0.0,0.0,0.0,0.0,1,1,0.0,1,1.0,0,1.0,0,1.0,0,1.0
69,75,'1 ',0.0405,0.122,0.124,0.0,0.0,0.0,0.0,0.0,0.0,0.0,1,1,0.0,1,1.0,0,1.0,0,1.0,0,1.0
69,77,'1 ',0.0309,0.101,0.1038,0.0,0.0,0.0,0.0,0.0,0.0,0.0,1,1,0.0,1,1.0,0,1.0,0,1.0,0,1.0
70,71,'1 ',0.00882,0.0355,0.00878,0.0,0.0,0.0,0.0,0.0,0.0,0.0,1,1,0.0,1,1.0,0,1.0,0,1.0,0,1.0
70,74,'1 ',0.0401,0.1323,0.03368,0.0,0.0,0.0,0.0,0.0,0.0,0.0,1,1,0.0,1,1.0,0,1.0,0,1.0,0,1.0
70,75,'1 ',0.0428,0.141,0.036,0.0,0.0,0.0,0.0,0.0,0.0,0.0,1,1,0.0,1,1.0,0,1.0,0,1.0,0,1.0
71,72,'1 ',0.0446,0.18,0.04444,0.0,0.0,0.0,0.0,0.0,0.0,0.0,1,1,0.0,1,1.0,0,1.0,0,1.0,0,1.0
71,73,'1 ',0.00866,0.0454,0.01178,0.0,0.0,0.0,0.0,0.0,0.0,0.0,1,1,0.0,1,1.0,0,1.0,0,1.0,0,1.0
74,75,'1 ',0.0123,0.0406,0.01034,0.0,0.0,0.0,0.0,0.0,0.0,0.0,1,1,0.0,1,1.0,0,1.0,0,1.0,0,1.0
75,77,'1 ',0.0601,0.1999,0.04978,0.0,0.0,0.0,0.0,0.0,0.0,0.0,1,1,0.0,1,1.0,0,1.0,0,1.0,0,1.0
75,118,'1 ',0.0145,0.0481,0.01198,0.0,0.0,0.0,0.0,0.0,0.0,0.0,1,1,0.0,1,1.0,0,1.0,0,1.0,0,1.0
76,77,'1 ',0.0444,0.148,0.0368,0.0,0.0,0.0,0.0,0.0,0.0,0.0,1,1,0.0,1,1.0,0,1.0,0,1.0,0,1.0
76,118,'1 ',0.0164,0.0544,0.01356,0.0,0.0,0.0,0.0,0.0,0.0,0.0,1,1,0.0,1,1.0,0,1.0,0,1.0,0,1.0
77,78,'1 ',0.00376,0.0124,0.01264,0.0,0.0,0.0,0.0,0.0,0.0,0.0,1,1,0.0,1,1.0,0,1.0,0,1.0,0,1.0
77,80,'1 ',0.017,0.0485,0.0472,0.0,0.0,0.0,0.0,0.0,0.0,0.0,1,1,0.0,1,1.0,0,1.0,0,1.0,0,1.0
77,80,'2 ',0.0294,0.105,0.0228,0.0,0.0,0.0,0.0,0.0,0.0,0.0,1,1,0.0,1,1.0,0,1.0,0,1.0,0,1.0
77,82,'1 ',0.0298,0.0853,0.08174,0.0,0.0,0.0,0.0,0.0,0.0,0.0,1,1,0.0,1,1.0,0,1.0,0,1.0,0,1.0
78,79,'1 ',0.00546,0.0244,0.00648,0.0,0.0,0.0,0.0,0.0,0.0,0.0,1,1,0.0,1,1.0,0,1.0,0,1.0,0,1.0
79,80,'1 ',0.0156,0.0704,0.0187,0.0,0.0,0.0,0.0,0.0,0.0,0.0,1,1,0.0,1,1.0,0,1.0,0,1.0,0,1.0
80,96,'1 ',0.0356,0.182,0.0494,0.0,0.0,0.0,0.0,0.0,0.0,0.0,1,1,0.0,1,1.0,0,1.0,0,1.0,0,1.0
80,97,'1 ',0.0183,0.0934,0.0254,0.0,0.0,0.0,0.0,0.0,0.0,0.0,1,1,0.0,1,1.0,0,1.0,0,1.0,0,1.0
80,98,'1 ',0.0238,0.108,0.0286,0.0,0.0,0.0,0.0,0.0,0.0,0.0,1,1,0.0,1,1.0,0,1.0,0,1.0,0,1.0
80,99,'1 ',0.0454,0.206,0.0546,0.0,0.0,0.0,0.0,0.0,0.0,0.0,1,1,0.0,1,1.0,0,1.0,0,1.0,0,1.0
82,83,'1 ',0.0112,0.03665,0.03796,0.0,0.0,0.0,0.0,0.0,0.0,0.0,1,1,0.0,1,1.0,0,1.0,0,1.0,0,1.0
82,96,'1 ',0.0162,0.053,0.0544,0.0,0.0,0.0,0.0,0.0,0.0,0.0,1,1,0.0,1,1.0,0,1.0,0,1.0,0,1.0
83,84,'1 ',0.0625,0.132,0.0258,0.0,0.0,0.0,0.0,0.0,0.0,0.0,1,1,0.0,1,1.0,0,1.0,0,1.0,0,1.0
83,85,'1 ',0.043,0.148,0.0348,0.0,0.0,0.0,0.0,0.0,0.0,0.0,1,1,0.0,1,1.0,0,1.0,0,1.0,0,1.0
84,85,'1 ',0.0302,0.0641,0.01234,0.0,0.0,0.0,0.0,0.0,0.0,0.0,1,1,0.0,1,1.0,0,1.0,0,1.0,0,1.0
85,86,'1 ',0.035,0.123,0.0276,0.0,0.0,0.0,0.0,0.0,0.0,0.0,1,1,0.0,1,1.0,0,1.0,0,1.0,0,1.0
85,88,'1 ',0.02,0.102,0.0276,0.0,0.0,0.0,0.0,0.0,0.0,0.0,1,1,0.0,1,1.0,0,1.0,0,1.0,0,1.0
85,89,'1 ',0.0239,0.173,0.047,0.0,0.0,0.0,0.0,0.0,0.0,0.0,1,1,0.0,1,1.0,0,1.0,0,1.0,0,1.0
86,87,'1 ',0.02828,0.2074,0.0445,0.0,0.0,0.0,0.0,0.0,0.0,0.0,1,1,0.0,1,1.0,0,1.0,0,1.0,0,1.0
88,89,'1 ',0.0139,0.0712,0.01934,0.0,0.0,0.0,0.0,0.0,0.0,0.0,1,1,0.0,1,1.0,0,1.0,0,1.0,0,1.0
89,90,'1 ',0.0518,0.188,0.0528,0.0,0.0,0.0,0.0,0.0,0.0,0.0,1,1,0.0,1,1.0,0,1.0,0,1.0,0,1.0
89,90,'2 ',0.0238,0.0997,0.106,0.0,0.0,0.0,0.0,0.0,0.0,0.0,1,1,0.0,1,1.0,0,1.0,0,1.0,0,1.0
89,92,'1 ',0.0099,0.0505,0.0548,0.0,0.0,0.0,0.0,0.0,0.0,0.0,1,1,0.0,1,1.0,0,1.0,0,1.0,0,1.0
89,92,'2 ',0.0393,0.1581,0.0414,0.0,0.0,0.0,0.0,0.0,0.0,0.0,1,1,0.0,1,1.0,0,1.0,0,1.0,0,1.0
90,91,'1 ',0.0254,0.0836,0.0214,0.0,0.0,0.0,0.0,0.0,0.0,0.0,1,1,0.0,1,1.0,0,1.0,0,1.0,0,1.0
91,92,'1 ',0.0387,0.1272,0.03268,0.0,0.0,0.0,0.0,0.0,0.0,0.0,1,1,0.0,1,1.0,0,1.0,0,1.0,0,1.0
92,93,'1 ',0.0258,0.0848,0.0218,0.0,0.0,0.0,0.0,0.0,0.0,0.0,1,1,0.0,1,1.0,0,1.0,0,1.0,0,1.0
92,94,'1 ',0.0481,0.158,0.0406,0.0,0.0,0.0,0.0,0.0,0.0,0.0,1,1,0.0,1,1.0,0,1.0,0,1.0,0,1.0
92,100,'1 ',0.0648,0.295,0.0472,0.0,0.0,0.0,0.0,0.0,0.0,0.0,1,1,0.0,1,1.0,0,1.0,0,1.0,0,1.0
92,102,'1 ',0.0123,0.0559,0.01464,0.0,0.0,0.0,0.0,0.0,0.0,0.0,1,1,0.0,1,1.0,0,1.0,0,1.0,0,1.0
93,94,'1 ',0.0223,0.0732,0.01876,0.0,0.0,0.0,0.0,0.0,0.0,0.0,1,1,0.0,1,1.0,0,1.0,0,1.0,0,1.0
94,95,'1 ',0.0132,0.0434,0.0111,0.0,0.0,0.0,0.0,0.0,0.0,0.0,1,1,0.0,1,1.0,0,1.0,0,1.0,0,1.0
94,96,'1 ',0.0269,0.0869,0.023,0.0,0.0,0.0,0.0,0.0,0.0,0.0,1,1,0.0,1,1.0,0,1.0,0,1.0,0,1.0
94,100,'1 ',0.0178,0.058,0.0604,0.0,0.0,0.0,0.0,0.0,0.0,0.0,1,1,0.0,1,1.0,0,1.0,0,1.0,0,1.0
95,96,'1 ',0.0171,0.0547,0.01474,0.0,0.0,0.0,0.0,0.0,0.0,0.0,1,1,0.0,1,1.0,0,1.0,0,1.0,0,1.0
96,97,'1 ',0.0173,0.0885,0.024,0.0,0.0,0.0,0.0,0.0,0.0,0.0,1,1,0.0,1,1.0,0,1.0,0,1.0,0,1.0
98,100,'1 ',0.0397,0.179,0.0476,0.0,0.0,0.0,0.0,0.0,0.0,0.0,1,1,0.0,1,1.0,0,1.0,0,1.0,0,1.0
99,100,'1 ',0.018,0.0813,0.0216,0.0,0.0,0.0,0.0,0.0,0.0,0.0,1,1,0.0,1,1.0,0,1.0,0,1.0,0,1.0
100,101,'1 ',0.0277,0.1262,0.0328,0.0,0.0,0.0,0.0,0.0,0.0,0.0,1,1,0.0,1,1.0,0,1.0,0,1.0,0,1.0
100,103,'1 ',0.016,0.0525,0.0536,0.0,0.0,0.0,0.0,0.0,0.0,0.0,1,1,0.0,1,1.0,0,1.0,0,1.0,0,1.0
100,104,'1 ',0.0451,0.204,0.0541,0.0,0.0,0.0,0.0,0.0,0.0,0.0,1,1,0.0,1,1.0,0,1.0,0,1.0,0,1.0
100,106,'1 ',0.0605,0.229,0.062,0.0,0.0,0.0,0.0,0.0,0.0,0.0,1,1,0.0,1,1.0,0,1.0,0,1.0,0,1.0
101,102,'1 ',0.0246,0.112,0.0294,0.0,0.0,0.0,0.0,0.0,0.0,0.0,1,1,0.0,1,1.0,0,1.0,0,1.0,0,1.0
103,104,'1 ',0.0466,0.1584,0.0407,0.0,0.0,0.0,0.0,0.0,0.0,0.0,1,1,0.0,1,1.0,0,1.0,0,1.0,0,1.0
103,105,'1 ',0.0535,0.1625,0.0408,0.0,0.0,0.0,0.0,0.0,0.0,0.0,1,1,0.0,1,1.0,0,1.0,0,1.0,0,1.0
103,110,'1 ',0.03906,0.1813,0.0461,0.0,0.0,0.0,0.0,0.0,0.0,0.0,1,1,0.0,1,1.0,0,1.0,0,1.0,0,1.0
104,105,'1 ',0.00994,0.0378,0.00986,0.0,0.0,0.0,0.0,0.0,0.0,0.0,1,1,0.0,1,1.0,0,1.0,0,1.0,0,1.0
105,106,'1 ',0.014,0.0547,0.01434,0.0,0.0,0.0,0.0,0.0,0.0,0.0,1,1,0.0,1,1.0,0,1.0,0,1.0,0,1.0
105,107,'1 ',0.053,0.183,0.0472,0.0,0.0,0.0,0.0,0.0,0.0,0.0,1,1,0.0,1,1.0,0,1.0,0,1.0,0,1.0
105,108,'1 ',0.0261,0.0703,0.01844,0.0,0.0,0.0,0.0,0.0,0.0,0.0,1,1,0.0,1,1.0,0,1.0,0,1.0,0,1.0
106,107,'1 ',0.053,0.183,0.0472,0.0,0.0,0.0,0.0,0.0,0.0,0.0,1,1,0.0,1,1.0,0,1.0,0,1.0,0,1.0
108,109,'1 ',0.0105,0.0288,0.0076,0.0,0.0,0.0,0.0,0.0,0.0,0.0,1,1,0.0,1,1.0,0,1.0,0,1.0,0,1.0
109,110,'1 ',0.0278,0.0762,0.0202,0.0,0.0,0.0,0.0,0.0,0.0,0.0,1,1,0.0,1,1.0,0,1.0,0,1.0,0,1.0
110,111,'1 ',0.022,0.0755,0.02,0.0,0.0,0.0,0.0,0.0,0.0,0.0,1,1,0.0,1,1.0,0,1.0,0,1.0,0,1.0
110,112,'1 ',0.0247,0.064,0.062,0.0,0.0,0.0,0.0,0.0,0.0,0.0,1,1,0.0,1,1.0,0,1.0,0,1.0,0,1.0
114,115,'1 ',0.0023,0.0104,0.00276,0.0,0.0,0.0,0.0,0.0,0.0,0.0,1,1,0.0,1,1.0,0,1.0,0,1.0,0,1.0
0 / END OF BRANCH DATA, BEGIN TRANSFORMER DATA
8,5,0,'1 ',1,1,1,0.0,0.0,2,'        ',1,1,1.0,0,1.0,0,1.0,0,1.0
0.0,0.0267,100.0
0.9850000000000001,0.0,0.0,0.0,0.0,0.0,0,0,1.5,0.51,1.5,0.51,159,0,0.0,0.0
1.0,0.0
26,25,0,'1 ',1,1,1,0.0,0.0,2,'        ',1,1,1.0,0,1.0,0,1.0,0,1.0
0.0,0.0382,100.0
0.96,0.0,0.0,0.0,0.0,0.0,0,0,1.5,0.51,1.5,0.51,159,0,0.0,0.0
1.0,0.0
30,17,0,'1 ',1,1,1,0.0,0.0,2,'        ',1,1,1.0,0,1.0,0,1.0,0,1.0
0.0,0.0388,100.0
0.96,0.0,0.0,0.0,0.0,0.0,0,0,1.5,0.51,1.5,0.51,159,0,0.0,0.0
1.0,0.0
38,37,0,'1 ',1,1,1,0.0,0.0,2,'        ',1,1,1.0,0,1.0,0,1.0,0,1.0
0.0,0.0375,100.0
0.9350000000000002,0.0,0.0,0.0,0.0,0.0,0,0,1.5,0.51,1.5,0.51,159,0,0.0,0.0
1.0,0.0
63,59,0,'1 ',1,1,1,0.0,0.0,2,'        ',1,1,1.0,0,1.0,0,1.0,0,1.0
0.0,0.0386,100.0
0.96,0.0,0.0,0.0,0.0,0.0,0,0,1.5,0.51,1.5,0.51,159,0,0.0,0.0
1.0,0.0
64,61,0,'1 ',1,1,1,0.0,0.0,2,'        ',1,1,1.0,0,1.0,0,1.0,0,1.0
0.0,0.0268,100.0
0.9850000000000001,0.0,0.0,0.0,0.0,0.0,0,0,1.5,0.51,1.5,0.51,159,0,0.0,0.0
1.0,0.0
65,66,0,'1 ',1,1,1,0.0,0.0,2,'        ',1,1,1.0,0,1.0,0,1.0,0,1.0
0.0,0.037,100.0
0.9350000000000002,0.0,0.0,0.0,0.0,0.0,0,0,1.5,0.51,1.5,0.51,159,0,0.0,0.0
1.0,0.0
68,69,0,'1 ',1,1,1,0.0,0.0,2,'        ',1,1,1.0,0,1.0,0,1.0,0,1.0
0.0,0.037,100.0
0.9350000000000002,0.0,0.0,0.0,0.0,0.0,0,0,1.5,0.51,1.5,0.51,159,0,0.0,0.0
1.0,0.0
81,80,0,'1 ',1,1,1,0.0,0.0,2,'        ',1,1,1.0,0,1.0,0,1.0,0,1.0
0.0,0.037,100.0
0.9350000000000002,0.0,0.0,0.0,0.0,0.0,0,0,1.5,0.51,1.5,0.51,159,0,0.0,0.0
1.0,0.0
0 / END OF TRANSFORMER DATA, BEGIN AREA DATA
1,80,0.0,999.99,'IEEE11      '
0 / END OF AREA DATA, BEGIN TWO-TERMINAL DC DATA
0 / END OF TWO-TERMINAL DC DATA, BEGIN VOLTAGE SOURCE CONVERTER DATA
0 / END OF VOLTAGE SOURCE CONVERTER DATA, BEGIN IMPEDANCE CORRECTION DATA
0 / END OF IMPEDANCE CORRECTION DATA, BEGIN MULTI-TERMINAL DC DATA
0 / END OF MULTI-TERMINAL DC DATA, BEGIN MULTI-SECTION LINE DATA
0 / END OF MULTI-SECTION LINE DATA, BEGIN ZONE DATA
1,'IEEE 118'
0 / END OF ZONE DATA, BEGIN INTER-AREA TRANSFER DATA
0 / END OF INTER-AREA TRANSFER DATA, BEGIN OWNER DATA
1,'1'
0 / END OF OWNER DATA, BEGIN FACTS CONTROL DEVICE DATA
0 / END OF FACTS CONTROL DEVICE DATA, BEGIN SWITCHED SHUNT DATA
0 / END OF SWITCHED SHUNT DATA, BEGIN GNE DEVICE DATA
0 / END OF GNE DEVICE DATA, BEGIN INDUCTION MACHINE DATA
0 / END OF INDUCTION MACHINE DATA
Q
